/*--------------------------------*- C++ -*----------------------------------*\
| =========                 |                                                 |
| \\      /  F ield         | OpenFOAM: The Open Source CFD Toolbox           |
|  \\    /   O peration     | Version:  v1812                                 |
|   \\  /    A nd           | Web:      www.OpenFOAM.com                      |
|    \\/     M anipulation  |                                                 |
\*---------------------------------------------------------------------------*/
FoamFile
{
    version     2.0;
    format      ascii;
    class       dictionary;
    location    "system";
    object      fvSolution;
}
// * * * * * * * * * * * * * * * * * * * * * * * * * * * * * * * * * * * * * //

solvers
{
    "alpha.water.*"
    {
        nAlphaCorr      2;
        nAlphaSubCycles 2;
        cAlpha          1;

        // MULESCorr       yes;
        // nLimiterIter    3;

        // solver          PBiCG;
        // preconditioner  DILU;
        // smoother        symGaussSeidel;
        // tolerance       1e-14;
        // relTol          0;

        // //-- interfaceCompression experimental stuff
        // solveExpl       OPT_EXPL_SOLVE;
        // comprNonCoupledBounds OPT_COMPRESS_NON_COUPLED_BOUNDS; 
        // compressInterface OPT_COMPRESS_INTERFACE;         //Option only with solvExpl no;
        
        // minIsoComprVel 0; // 0.0
        // isIsoUf        0; // 1
        // //--
    }

    p_rgh
    {
        solver          GAMG;
        tolerance       1e-08;
        relTol          0.01;
        smoother        DIC;
        cacheAgglomeration no;
    }

    p_rghFinal
    {
        $p_rgh;
        relTol          0;
    }

    "pcorr.*"
    {
        $p_rghFinal;
        tolerance       1e-08;
        relTol          0;
    }

    U
    {
        solver          smoothSolver;
        smoother        GaussSeidel;
        tolerance       1e-06;
        relTol          0;
        nSweeps         1;
    }

    UFinal
    {
        solver          smoothSolver;
        smoother        GaussSeidel;
        tolerance       1e-06;
        relTol          0;
        nSweeps         1;
    }

    "(k|omega|B|nuTilda).*"
    {
        solver          smoothSolver;
        smoother        symGaussSeidel;
        tolerance       1e-08;
        relTol          0;
    }
}

PIMPLE
{
    momentumPredictor yes;
    nCorrectors     3;
    nNonOrthogonalCorrectors 0;
    correctPhi yes;

    pRefPoint      (0.51 0.51 0.51);
    pRefValue      0;
}


// ************************************************************************* //
