/*--------------------------------*- C++ -*----------------------------------*\
| =========                 |                                                 |
| \\      /  F ield         | OpenFOAM: The Open Source CFD Toolbox           |
|  \\    /   O peration     | Version:  v1812                                 |
|   \\  /    A nd           | Web:      www.OpenFOAM.com                      |
|    \\/     M anipulation  |                                                 |
\*---------------------------------------------------------------------------*/
FoamFile
{
    version     2.0;
    format      ascii;
    class       dictionary;
    object      topoSetDict;
}

// * * * * * * * * * * * * * * * * * * * * * * * * * * * * * * * * * * * * * //

actions
(

    // rightSolid
    {
        name    rightSolidCellSet;
        type    cellSet;
        action  new;
        source  boxToCell;
        box     (0.089978 -100 -100) (100 100 100);
    }
    {
        name    rightSolid;
        type    cellZoneSet;
        action  new;
        source  setToCellZone;
        set     rightSolidCellSet;
    }

    // air
    {
        name    airCellSet;
        type    cellSet;
        action  new;
        source  boxToCell;
        box     (-100 -100 -100) (0.089978 100 100);
    }
    {
        name    air;
        type    cellZoneSet;
        action  new;
        source  setToCellZone;
        set     airCellSet;
    }


);


// ************************************************************************* //
