/*--------------------------------*- C++ -*----------------------------------*\
| =========                 |                                                 |
| \\      /  F ield         | OpenFOAM: The Open Source CFD Toolbox           |
|  \\    /   O peration     | Version:  v1812                                 |
|   \\  /    A nd           | Web:      www.OpenFOAM.com                      |
|    \\/     M anipulation  |                                                 |
\*---------------------------------------------------------------------------*/
FoamFile
{
    version     2.0;
    format      ascii;
    class       dictionary;
    object      fvSolution;
}
// * * * * * * * * * * * * * * * * * * * * * * * * * * * * * * * * * * * * * //

solvers
{
    rho
    {
        solver          PCG;
        preconditioner  DIC;
        tolerance       1e-7;
        relTol          0.1;
    }

    rhoFinal
    {
        $rho;
        tolerance       1e-7;
        relTol          0;
    }

    p_rgh
    {
        solver           GAMG;
        tolerance        1e-7;
        relTol           0.01;

        smoother         GaussSeidel;
        cacheAgglomeration no;

    }

    p_rghFinal
    {
        $p_rgh;
        tolerance        1e-7;
        relTol           0;
        cacheAgglomeration no;
    }

    pcorr
    {
        solver           GAMG;
        tolerance        1e-7;
        relTol           0.01;

        smoother         GaussSeidel;
        cacheAgglomeration no;
    }

    pcorrFinal
    {
        $p_rgh;
        tolerance        1e-7;
        relTol           0;
        cacheAgglomeration no;
    }

    "(U|h|k|epsilon|R)"
    {
        solver           PBiCGStab;
        preconditioner   DILU;
        tolerance        1e-7;
        relTol           0.1;
    }

    "(U|h|k|epsilon|R)Final"
    {
        $U;
        tolerance        1e-7;
        relTol           0;
    }
}

PIMPLE
{
    momentumPredictor   yes;
    nCorrectors         3;
    nNonOrthogonalCorrectors 0;
    //pRefPoint (1e-6 1e-6 1e-6);
    //pRefValue   1e5;
    correctPhi true;

}

relaxationFactors
{
    equations
    {
        "h.*"           1;
        "U.*"           1;
    }
}

// ************************************************************************* //
